tests/data/opendss/fourwire_linecode.dss
! Four wire line with an explicit neutral conductor (no Kron reduction).
! The neutral is grounded at the source bus (node 0) and carried as node 4
! on the line; the wye loads return through it.
Clear
Set DefaultBaseFrequency=60

New Circuit.fourwire basekv=0.416 pu=1.0 phases=3 bus1=sourcebus MVAsc3=2000 MVAsc1=2100

New Linecode.lc4 nphases=4 basefreq=60 units=km
~ rmatrix = (0.211 | 0.049 0.211 | 0.049 0.049 0.211 | 0.049 0.049 0.049 0.211)
~ xmatrix = (0.747 | 0.673 0.747 | 0.651 0.673 0.747 | 0.673 0.651 0.673 0.747)
~ cmatrix = (10.0 | 0.0 10.0 | 0.0 0.0 10.0 | 0.0 0.0 0.0 10.0)
~ normamps=185 emergamps=240

New Line.l1 bus1=sourcebus.1.2.3.0 bus2=loadbus.1.2.3.4 phases=4 linecode=lc4 length=0.4 units=km

New Load.la bus1=loadbus.1.4 phases=1 conn=wye kv=0.24 kw=8 pf=0.95 model=1 vminpu=0.8 vmaxpu=1.2
New Load.lb bus1=loadbus.2.4 phases=1 conn=wye kv=0.24 kw=6 pf=0.95 model=1 vminpu=0.8 vmaxpu=1.2
New Load.lc bus1=loadbus.3.4 phases=1 conn=wye kv=0.24 kw=10 pf=0.95 model=1 vminpu=0.8 vmaxpu=1.2

Set VoltageBases=[0.416]
Calcvoltagebases
Solve
